 Case_ID  ElastoDyn  ElastoDyn  ElastoDyn  ElastoDyn  ElastoDyn  ElastoDyn  ElastoDyn  ElastoDyn  ElastoDyn  ElastoDyn  ElastoDyn  ElastoDyn  ElastoDyn  ElastoDyn  ElastoDyn  ElastoDyn  ElastoDyn     Fst        Fst        Fst        Fst       Fst       Fst          Fst         Fst       Fst     Fst    Fst   InflowWind  InflowWind  ServoDyn  ServoDyn                             ServoDyn                             ServoDyn    ServoDyn  ServoDyn  ServoDyn  ServoDyn 
           DrTrDOF    EdgeDOF    FlapDOF1   FlapDOF2    GenDOF   PtfmHvDOF   PtfmPDOF   PtfmRDOF  PtfmSgDOF  PtfmSwDOF   PtfmYDOF   TeetDOF    TwFADOF1   TwFADOF2   TwSSDOF1   TwSSDOF2    YawDOF   CalcSteady  CompAero  CompElast  CompHydro  CompIce  CompInflow  CompMooring  CompServo  CompSub    DT    TMax  HWindSpeed   WindType   AfCMode    CCMode                            DLL_FileName                          DLL_InFile  HSSBrMode   PCMode   VSContrl   YCMode  
    0       False       True       True       True      False      False      False      False      False      False      False      False       True       True       True       True      False       True        2          1          0         0         1            0           1         0     0.0125  250      0.5          1          0         0      /Users/aoifework/Documents/dev/WEIS/local/lib/libdiscon.dylib     None         0         5         5         0     
    1       False       True       True       True      False      False      False      False      False      False      False      False       True       True       True       True      False       True        2          1          0         0         1            0           1         0     0.0125  250      1.0          1          0         0      /Users/aoifework/Documents/dev/WEIS/local/lib/libdiscon.dylib     None         0         5         5         0     
    2       False       True       True       True      False      False      False      False      False      False      False      False       True       True       True       True      False       True        2          1          0         0         1            0           1         0     0.0125  250      1.5          1          0         0      /Users/aoifework/Documents/dev/WEIS/local/lib/libdiscon.dylib     None         0         5         5         0     
    3       False       True       True       True      False      False      False      False      False      False      False      False       True       True       True       True      False       True        2          1          0         0         1            0           1         0     0.0125  250      2.0          1          0         0      /Users/aoifework/Documents/dev/WEIS/local/lib/libdiscon.dylib     None         0         5         5         0     
    4       False       True       True       True      False      False      False      False      False      False      False      False       True       True       True       True      False       True        2          1          0         0         1            0           1         0     0.0125  250      2.5          1          0         0      /Users/aoifework/Documents/dev/WEIS/local/lib/libdiscon.dylib     None         0         5         5         0     
    5       False       True       True       True      False      False      False      False      False      False      False      False       True       True       True       True      False       True        2          1          0         0         1            0           1         0     0.0125  250      3.0          1          0         0      /Users/aoifework/Documents/dev/WEIS/local/lib/libdiscon.dylib     None         0         5         5         0     
    6       False       True       True       True      False      False      False      False      False      False      False      False       True       True       True       True      False       True        2          1          0         0         1            0           1         0     0.0125  250      3.5          1          0         0      /Users/aoifework/Documents/dev/WEIS/local/lib/libdiscon.dylib     None         0         5         5         0     
    7       False       True       True       True      False      False      False      False      False      False      False      False       True       True       True       True      False       True        2          1          0         0         1            0           1         0     0.0125  250      4.0          1          0         0      /Users/aoifework/Documents/dev/WEIS/local/lib/libdiscon.dylib     None         0         5         5         0     
    8       False       True       True       True      False      False      False      False      False      False      False      False       True       True       True       True      False       True        2          1          0         0         1            0           1         0     0.0125  250      4.5          1          0         0      /Users/aoifework/Documents/dev/WEIS/local/lib/libdiscon.dylib     None         0         5         5         0     
    9       False       True       True       True      False      False      False      False      False      False      False      False       True       True       True       True      False       True        2          1          0         0         1            0           1         0     0.0125  250      5.0          1          0         0      /Users/aoifework/Documents/dev/WEIS/local/lib/libdiscon.dylib     None         0         5         5         0     
    10      False       True       True       True      False      False      False      False      False      False      False      False       True       True       True       True      False       True        2          1          0         0         1            0           1         0     0.0125  250      5.5          1          0         0      /Users/aoifework/Documents/dev/WEIS/local/lib/libdiscon.dylib     None         0         5         5         0     
    11      False       True       True       True      False      False      False      False      False      False      False      False       True       True       True       True      False       True        2          1          0         0         1            0           1         0     0.0125  250      6.0          1          0         0      /Users/aoifework/Documents/dev/WEIS/local/lib/libdiscon.dylib     None         0         5         5         0     
    12      False       True       True       True      False      False      False      False      False      False      False      False       True       True       True       True      False       True        2          1          0         0         1            0           1         0     0.0125  250      6.5          1          0         0      /Users/aoifework/Documents/dev/WEIS/local/lib/libdiscon.dylib     None         0         5         5         0     
    13      False       True       True       True      False      False      False      False      False      False      False      False       True       True       True       True      False       True        2          1          0         0         1            0           1         0     0.0125  250      7.0          1          0         0      /Users/aoifework/Documents/dev/WEIS/local/lib/libdiscon.dylib     None         0         5         5         0     
    14      False       True       True       True      False      False      False      False      False      False      False      False       True       True       True       True      False       True        2          1          0         0         1            0           1         0     0.0125  250      7.5          1          0         0      /Users/aoifework/Documents/dev/WEIS/local/lib/libdiscon.dylib     None         0         5         5         0     
    15      False       True       True       True      False      False      False      False      False      False      False      False       True       True       True       True      False       True        2          1          0         0         1            0           1         0     0.0125  250      8.0          1          0         0      /Users/aoifework/Documents/dev/WEIS/local/lib/libdiscon.dylib     None         0         5         5         0     
    16      False       True       True       True      False      False      False      False      False      False      False      False       True       True       True       True      False       True        2          1          0         0         1            0           1         0     0.0125  250      8.5          1          0         0      /Users/aoifework/Documents/dev/WEIS/local/lib/libdiscon.dylib     None         0         5         5         0     
    17      False       True       True       True      False      False      False      False      False      False      False      False       True       True       True       True      False       True        2          1          0         0         1            0           1         0     0.0125  250      9.0          1          0         0      /Users/aoifework/Documents/dev/WEIS/local/lib/libdiscon.dylib     None         0         5         5         0     
    18      False       True       True       True      False      False      False      False      False      False      False      False       True       True       True       True      False       True        2          1          0         0         1            0           1         0     0.0125  250      9.5          1          0         0      /Users/aoifework/Documents/dev/WEIS/local/lib/libdiscon.dylib     None         0         5         5         0     
    19      False       True       True       True      False      False      False      False      False      False      False      False       True       True       True       True      False       True        2          1          0         0         1            0           1         0     0.0125  250      10.0         1          0         0      /Users/aoifework/Documents/dev/WEIS/local/lib/libdiscon.dylib     None         0         5         5         0     
    20      False       True       True       True      False      False      False      False      False      False      False      False       True       True       True       True      False       True        2          1          0         0         1            0           1         0     0.0125  250      10.5         1          0         0      /Users/aoifework/Documents/dev/WEIS/local/lib/libdiscon.dylib     None         0         5         5         0     
    21      False       True       True       True      False      False      False      False      False      False      False      False       True       True       True       True      False       True        2          1          0         0         1            0           1         0     0.0125  250      11.0         1          0         0      /Users/aoifework/Documents/dev/WEIS/local/lib/libdiscon.dylib     None         0         5         5         0     
    22      False       True       True       True      False      False      False      False      False      False      False      False       True       True       True       True      False       True        2          1          0         0         1            0           1         0     0.0125  250      11.5         1          0         0      /Users/aoifework/Documents/dev/WEIS/local/lib/libdiscon.dylib     None         0         5         5         0     
    23      False       True       True       True      False      False      False      False      False      False      False      False       True       True       True       True      False       True        2          1          0         0         1            0           1         0     0.0125  250      12.0         1          0         0      /Users/aoifework/Documents/dev/WEIS/local/lib/libdiscon.dylib     None         0         5         5         0     
    24      False       True       True       True      False      False      False      False      False      False      False      False       True       True       True       True      False       True        2          1          0         0         1            0           1         0     0.0125  250      12.5         1          0         0      /Users/aoifework/Documents/dev/WEIS/local/lib/libdiscon.dylib     None         0         5         5         0     
    25      False       True       True       True      False      False      False      False      False      False      False      False       True       True       True       True      False       True        2          1          0         0         1            0           1         0     0.0125  250      13.0         1          0         0      /Users/aoifework/Documents/dev/WEIS/local/lib/libdiscon.dylib     None         0         5         5         0     
    26      False       True       True       True      False      False      False      False      False      False      False      False       True       True       True       True      False       True        2          1          0         0         1            0           1         0     0.0125  250      13.5         1          0         0      /Users/aoifework/Documents/dev/WEIS/local/lib/libdiscon.dylib     None         0         5         5         0     
    27      False       True       True       True      False      False      False      False      False      False      False      False       True       True       True       True      False       True        2          1          0         0         1            0           1         0     0.0125  250      14.0         1          0         0      /Users/aoifework/Documents/dev/WEIS/local/lib/libdiscon.dylib     None         0         5         5         0     
    28      False       True       True       True      False      False      False      False      False      False      False      False       True       True       True       True      False       True        2          1          0         0         1            0           1         0     0.0125  250      14.5         1          0         0      /Users/aoifework/Documents/dev/WEIS/local/lib/libdiscon.dylib     None         0         5         5         0     
    29      False       True       True       True      False      False      False      False      False      False      False      False       True       True       True       True      False       True        2          1          0         0         1            0           1         0     0.0125  250      15.0         1          0         0      /Users/aoifework/Documents/dev/WEIS/local/lib/libdiscon.dylib     None         0         5         5         0     
    30      False       True       True       True      False      False      False      False      False      False      False      False       True       True       True       True      False       True        2          1          0         0         1            0           1         0     0.0125  250      15.5         1          0         0      /Users/aoifework/Documents/dev/WEIS/local/lib/libdiscon.dylib     None         0         5         5         0     
    31      False       True       True       True      False      False      False      False      False      False      False      False       True       True       True       True      False       True        2          1          0         0         1            0           1         0     0.0125  250      16.0         1          0         0      /Users/aoifework/Documents/dev/WEIS/local/lib/libdiscon.dylib     None         0         5         5         0     
    32      False       True       True       True      False      False      False      False      False      False      False      False       True       True       True       True      False       True        2          1          0         0         1            0           1         0     0.0125  250      16.5         1          0         0      /Users/aoifework/Documents/dev/WEIS/local/lib/libdiscon.dylib     None         0         5         5         0     
    33      False       True       True       True      False      False      False      False      False      False      False      False       True       True       True       True      False       True        2          1          0         0         1            0           1         0     0.0125  250      17.0         1          0         0      /Users/aoifework/Documents/dev/WEIS/local/lib/libdiscon.dylib     None         0         5         5         0     
    34      False       True       True       True      False      False      False      False      False      False      False      False       True       True       True       True      False       True        2          1          0         0         1            0           1         0     0.0125  250      17.5         1          0         0      /Users/aoifework/Documents/dev/WEIS/local/lib/libdiscon.dylib     None         0         5         5         0     
    35      False       True       True       True      False      False      False      False      False      False      False      False       True       True       True       True      False       True        2          1          0         0         1            0           1         0     0.0125  250      18.0         1          0         0      /Users/aoifework/Documents/dev/WEIS/local/lib/libdiscon.dylib     None         0         5         5         0     
    36      False       True       True       True      False      False      False      False      False      False      False      False       True       True       True       True      False       True        2          1          0         0         1            0           1         0     0.0125  250      18.5         1          0         0      /Users/aoifework/Documents/dev/WEIS/local/lib/libdiscon.dylib     None         0         5         5         0     
    37      False       True       True       True      False      False      False      False      False      False      False      False       True       True       True       True      False       True        2          1          0         0         1            0           1         0     0.0125  250      19.0         1          0         0      /Users/aoifework/Documents/dev/WEIS/local/lib/libdiscon.dylib     None         0         5         5         0     
    38      False       True       True       True      False      False      False      False      False      False      False      False       True       True       True       True      False       True        2          1          0         0         1            0           1         0     0.0125  250      19.5         1          0         0      /Users/aoifework/Documents/dev/WEIS/local/lib/libdiscon.dylib     None         0         5         5         0     
    39      False       True       True       True      False      False      False      False      False      False      False      False       True       True       True       True      False       True        2          1          0         0         1            0           1         0     0.0125  250      20.0         1          0         0      /Users/aoifework/Documents/dev/WEIS/local/lib/libdiscon.dylib     None         0         5         5         0     
    40      False       True       True       True      False      False      False      False      False      False      False      False       True       True       True       True      False       True        2          1          0         0         1            0           1         0     0.0125  250      20.5         1          0         0      /Users/aoifework/Documents/dev/WEIS/local/lib/libdiscon.dylib     None         0         5         5         0     
    41      False       True       True       True      False      False      False      False      False      False      False      False       True       True       True       True      False       True        2          1          0         0         1            0           1         0     0.0125  250      21.0         1          0         0      /Users/aoifework/Documents/dev/WEIS/local/lib/libdiscon.dylib     None         0         5         5         0     
    42      False       True       True       True      False      False      False      False      False      False      False      False       True       True       True       True      False       True        2          1          0         0         1            0           1         0     0.0125  250      21.5         1          0         0      /Users/aoifework/Documents/dev/WEIS/local/lib/libdiscon.dylib     None         0         5         5         0     
    43      False       True       True       True      False      False      False      False      False      False      False      False       True       True       True       True      False       True        2          1          0         0         1            0           1         0     0.0125  250      22.0         1          0         0      /Users/aoifework/Documents/dev/WEIS/local/lib/libdiscon.dylib     None         0         5         5         0     
    44      False       True       True       True      False      False      False      False      False      False      False      False       True       True       True       True      False       True        2          1          0         0         1            0           1         0     0.0125  250      22.5         1          0         0      /Users/aoifework/Documents/dev/WEIS/local/lib/libdiscon.dylib     None         0         5         5         0     
    45      False       True       True       True      False      False      False      False      False      False      False      False       True       True       True       True      False       True        2          1          0         0         1            0           1         0     0.0125  250      23.0         1          0         0      /Users/aoifework/Documents/dev/WEIS/local/lib/libdiscon.dylib     None         0         5         5         0     
    46      False       True       True       True      False      False      False      False      False      False      False      False       True       True       True       True      False       True        2          1          0         0         1            0           1         0     0.0125  250      23.5         1          0         0      /Users/aoifework/Documents/dev/WEIS/local/lib/libdiscon.dylib     None         0         5         5         0     
    47      False       True       True       True      False      False      False      False      False      False      False      False       True       True       True       True      False       True        2          1          0         0         1            0           1         0     0.0125  250      24.0         1          0         0      /Users/aoifework/Documents/dev/WEIS/local/lib/libdiscon.dylib     None         0         5         5         0     
